LTspice 24.0.12 for Windows
Circuit: * C:\Users\Jabro\Documents\Perosnal Projects\PWM-Control-\Spice Components models\PWM Control Circiut Simulation.asc
Start Time: Thu Jan  1 15:38:28 2026
solver = Normal
Maximum thread count: 16
tnom = 27
temp = 27
method = modified trap
Direct Newton iteration failed to find .op point.  (Use ".option noopiter" to skip.)
Starting Gmin stepping
Gmin = 10
Gmin = 1.07374
Gmin = 0.115292
Gmin = 0.0123794
Gmin = 0.00132923
vernier = 0.5
vernier = 0.25
Gmin = 0.000348449
vernier = 0.125
vernier = 0.0625
vernier = 0.03125
vernier = 0.015625
vernier = 0.0078125
vernier = 0.00390625
vernier = 0.00195312
Gmin = 0.00033789
vernier = 0.000976562
vernier = 0.000488281
Gmin = 0
Gmin stepping failed

Starting source stepping with srcstepmethod=0
Source Step = 3.0303%
vernier = 0.25
Source Step = 3.40909%
Source Step = 5.30303%
Source Step = 7.19697%
Source Step = 8.14986%
Source Step = 8.17945%
Source Step = 8.20904%
Source Step = 8.23864%
Source Step = 8.26823%
Source Step = 8.29782%
vernier = 0.00146484
Source Step = 8.33333%
Source Step = 8.37772%
Source Step = 8.42211%
Source Step = 8.4665%
Source Step = 8.51089%
vernier = 0.00219727
Source Step = 8.56194%
Source Step = 8.62852%
Source Step = 8.69511%
Source Step = 8.76169%
Source Step = 8.82827%
vernier = 0.0032959
Source Step = 8.90152%
Source Step = 9.00139%
Source Step = 9.10127%
Source Step = 9.20114%
Source Step = 9.30102%
vernier = 0.00494385
Source Step = 9.40589%
Source Step = 9.5557%
Source Step = 9.70551%
Source Step = 9.85533%
Source Step = 10.0051%
Source Step = 10.155%
vernier = 0.00741577
Source Step = 10.3797%
Source Step = 10.6044%
Source Step = 10.8291%
Source Step = 11.0538%
Source Step = 11.2786%
vernier = 0.0111237
Source Step = 11.6044%
Source Step = 11.9415%
Source Step = 12.2786%
Source Step = 12.6156%
Source Step = 12.9527%
vernier = 0.0166855
Source Step = 13.4246%
Source Step = 13.9303%
Source Step = 14.4359%
Source Step = 14.9415%
Source Step = 15.4471%
vernier = 0.0250282
Source Step = 16.1297%
Source Step = 16.8881%
Source Step = 17.6466%
Source Step = 18.405%
Source Step = 19.1634%
vernier = 0.0375423
Source Step = 20.1494%
Source Step = 21.287%
Source Step = 22.4247%
Source Step = 23.5623%
Source Step = 24.7%
vernier = 0.0563135
Source Step = 26.122%
Source Step = 27.8285%
Source Step = 29.535%
Source Step = 31.2414%
Source Step = 32.9479%
vernier = 0.0844703
Source Step = 34.9957%
Source Step = 37.5554%
Source Step = 40.1151%
Source Step = 42.6748%
Source Step = 45.2345%
vernier = 0.126705
Source Step = 48.1782%
Source Step = 52.0177%
Source Step = 55.8573%
Source Step = 59.6968%
Source Step = 63.5364%
vernier = 0.190058
Source Step = 67.7599%
Source Step = 73.5192%
Source Step = 79.2786%
Source Step = 85.0379%
Source Step = 90.7973%
Source Step = 93.128%
Source Step = 93.218%
Source Step = 93.308%
Source Step = 93.398%
Source Step = 93.4879%
Source Step = 93.5779%
Starting source stepping with srcstepmethod=1
Source Step = 3.0303%
vernier = 0.25
Source Step = 0.0828598%
Source Step = 0.201231%
Source Step = 0.319602%
Source Step = 0.437973%
Source Step = 0.556345%
vernier = 0.00585938
Source Step = 0.710227%
Source Step = 0.887784%
Source Step = 1.06534%
Source Step = 1.2429%
Source Step = 1.42045%
vernier = 0.00878906
Source Step = 1.6424%
Source Step = 1.90874%
Source Step = 2.17507%
Source Step = 2.44141%
Source Step = 2.70774%
vernier = 0.0131836
Source Step = 3.02734%
Source Step = 3.42685%
Source Step = 3.82635%
Source Step = 4.22585%
Source Step = 4.62536%
vernier = 0.0197754
Source Step = 5.08478%
Source Step = 5.68404%
Source Step = 6.28329%
Source Step = 6.88255%
Source Step = 7.4818%
vernier = 0.0296631
Source Step = 8.14098%
Source Step = 9.03986%
Source Step = 9.93874%
Source Step = 10.8376%
Source Step = 11.7365%
vernier = 0.0444946
Source Step = 12.6803%
Source Step = 14.0287%
Source Step = 15.377%
Source Step = 16.7253%
Source Step = 18.0736%
Source Step = 19.4219%
vernier = 0.0667419
Source Step = 21.4444%
Source Step = 23.4669%
Source Step = 25.4894%
Source Step = 27.5119%
Source Step = 29.5344%
vernier = 0.100113
Source Step = 32.467%
Source Step = 35.5007%
Source Step = 38.5344%
Source Step = 41.5681%
Source Step = 44.6019%
vernier = 0.150169
Source Step = 48.8491%
Source Step = 53.3997%
Source Step = 57.9502%
Source Step = 62.5008%
Source Step = 67.0514%
vernier = 0.225254
Source Step = 73.1947%
Source Step = 80.0206%
Source Step = 86.8465%
Source Step = 93.6724%
Source Step = 95.0482%
Source stepping failed

Pseudo Transient succeeded in finding the operating point at 9.50287 s.
Changing Tseed to 5.37109e-10
Total elapsed time: 10.872 seconds.

